Version 4
SHEET 1 880 680
WIRE 112 64 -80 64
WIRE 304 64 112 64
WIRE 304 80 304 64
WIRE -80 160 -80 64
WIRE 112 160 112 144
WIRE 112 160 48 160
WIRE 208 160 112 160
WIRE 48 208 48 160
WIRE 208 208 208 160
WIRE 240 208 208 208
WIRE 112 288 112 256
WIRE 304 288 304 256
WIRE -80 384 -80 240
WIRE 112 384 112 368
WIRE 112 384 -80 384
WIRE 304 384 304 368
WIRE 304 384 112 384
WIRE 112 416 112 384
FLAG 112 416 0
SYMBOL npn 48 160 R0
SYMATTR InstName Q1
SYMATTR Value 2N2369
SYMBOL res 96 48 R0
SYMATTR InstName R1
SYMATTR Value 730
SYMBOL res 96 272 R0
SYMATTR InstName R2
SYMATTR Value 100
SYMBOL res 288 272 R0
SYMATTR InstName R3
SYMATTR Value 100
SYMBOL npn 240 160 R0
SYMATTR InstName Q2
SYMATTR Value 2N2369
SYMBOL voltage -80 144 R0
SYMATTR InstName V1
SYMATTR Value 9
SYMBOL res 288 64 R0
SYMATTR InstName R4
SYMATTR Value 100
TEXT -64 432 Left 2 !.op 1
